*Heading
** Job name: Job-1 Model name: Model-1
** Generated by: Abaqus/CAE 2022
*Preprint, echo=NO, model=NO, history=NO, contact=NO
**
** PARTS
**
*Part, name=Part-1
*Node
      1,         340.,         160.,           2.
      2,         340.,   145.454544,           2.
      3,         340.,   130.909088,           2.
      4,         340.,    116.36364,           2.
      5,         340.,   101.818184,           2.
      6,         340.,    87.272728,           2.
      7,         340.,    72.727272,           2.
      8,         340.,   58.1818199,           2.
      9,         340.,    43.636364,           2.
     10,         340.,     29.09091,           2.
     11,         340.,    14.545455,           2.
     12,         340.,           0.,           2.
     13,         340.,         160.,           0.
     14,         340.,   145.454544,           0.
     15,         340.,   130.909088,           0.
     16,         340.,    116.36364,           0.
     17,         340.,   101.818184,           0.
     18,         340.,    87.272728,           0.
     19,         340.,    72.727272,           0.
     20,         340.,   58.1818199,           0.
** ... 556 like lines cut
*Element, type=SC8R
  1,  25,  26,  38,  37,   1,   2,  14,  13
  2,  26,  27,  39,  38,   2,   3,  15,  14
  3,  27,  28,  40,  39,   3,   4,  16,  15
  4,  28,  29,  41,  40,   4,   5,  17,  16
  5,  29,  30,  42,  41,   5,   6,  18,  17
  6,  30,  31,  43,  42,   6,   7,  19,  18
  7,  31,  32,  44,  43,   7,   8,  20,  19
  8,  32,  33,  45,  44,   8,   9,  21,  20
  9,  33,  34,  46,  45,   9,  10,  22,  21
 10,  34,  35,  47,  46,  10,  11,  23,  22
 11,  35,  36,  48,  47,  11,  12,  24,  23
 12,  49,  50,  62,  61,  25,  26,  38,  37
 13,  50,  51,  63,  62,  26,  27,  39,  38
 14,  51,  52,  64,  63,  27,  28,  40,  39
 15,  52,  53,  65,  64,  28,  29,  41,  40
 16,  53,  54,  66,  65,  29,  30,  42,  41
 17,  54,  55,  67,  66,  30,  31,  43,  42
 18,  55,  56,  68,  67,  31,  32,  44,  43
 19,  56,  57,  69,  68,  32,  33,  45,  44
 20,  57,  58,  70,  69,  33,  34,  46,  45
** ... 233 like lines cut
*Nset, nset=Set-1, generate
   1,  576,    1
*Elset, elset=Set-1, generate
   1,  253,    1
*Nset, nset=Set-5, generate
   1,  576,    1
*Elset, elset=Set-5, generate
   1,  253,    1
*Nset, nset=Set-6, generate
   1,  576,    1
*Elset, elset=Set-6, generate
   1,  253,    1
*Orientation, name=Ori-1
1., 0., 0., 0., 1., 0.
3, 0.
** Section: Section-1
*Shell Section, elset=Set-1, material=Material-1, orientation=Ori-1, stack direction=ORIENTATION
2., 5
*End Part
**  
**
** ASSEMBLY
**
*Assembly, name=Assembly
**  
*Instance, name=Part-1-1, part=Part-1
*End Instance
**  
*Nset, nset=Set-3, instance=Part-1-1, generate
  1,  24,   1
*Elset, elset=Set-3, instance=Part-1-1, generate
  1,  11,   1
*Nset, nset=Set-4, instance=Part-1-1
 553,
*End Assembly
** 
** MATERIALS
** 
*Material, name=Material-1
*Density
 2.7e-09,
*Elastic
69000., 0.33
** ----------------------------------------------------------------
** 
** STEP: Step-1
** 
*Step, name=Step-1, nlgeom=NO
*Static
1., 1., 1e-05, 1.
** 
** BOUNDARY CONDITIONS
** 
** Name: BC-1 Type: 对称/反对称/完全固定
*Boundary
Set-3, ENCASTRE
** 
** LOADS
** 
** Name: Load-1   Type: Concentrated force
*Cload
Set-4, 3, -10.
** 
** OUTPUT REQUESTS
** 
*Restart, write, frequency=0
** 
** FIELD OUTPUT: F-Output-1
** 
*Output, field, variable=PRESELECT
** 
** HISTORY OUTPUT: H-Output-1
** 
*Output, history, variable=PRESELECT
*End Step
*Step, name=FEAuto
*matrix generate, stiffness, mass, load
*matrix output, stiffness, mass, load, FORMAT=COORDINATE
*Boundary
Set-3, ENCASTRE
*Cload
Set-4, 3, -10.
*End step