*Heading
** Job name: Job-3-1kg-size10 Model name: Model-1-size10
** Generated by: Abaqus/CAE 2022
*Preprint, echo=NO, model=NO, history=NO, contact=NO
**
** PARTS
**
*Part, name=Part-1
*End Part
**  
**
** ASSEMBLY
**
*Assembly, name=Assembly
**  
*Instance, name=Part-1-1, part=Part-1
*Node
      1,          44.,           0.,         400.
      2,          44.,           0.,         355.
      3,          44.,           3.,         355.
      4,          44.,           3.,         400.
      5,           0.,           0.,         400.
      6,           0.,           0.,         355.
      7,           0.,           3.,         355.
      8,           0.,           3.,         400.
      9,          50.,           0.,         400.
     10,          50.,           0.,         355.
     11,          50.,           3.,         355.
     12,          50.,           3.,         400.
     13,          44.,           0.,         425.
     14,          50.,           0.,         425.
     15,          50.,           3.,         425.
     16,          44.,           3.,         425.
     17,         -50.,           0.,         400.
     18,         -50.,           3.,         400.
     19,         -50.,           3.,         355.
     20,         -50.,           0.,         355.
** ... 1060 like lines cut
*Element, type=SC8R
 1, 413,  72,   1,  51, 425,  67,   4,  58
 2, 414, 413,  51,  52, 426, 425,  58,  57
 3, 415, 414,  52,  53, 427, 426,  57,  56
 4, 416, 415,  53,  54, 428, 427,  56,  55
 5,  78, 416,  54,   2,  73, 428,  55,   3
 6, 417,  71,  72, 413, 429,  68,  67, 425
 7, 418, 417, 413, 414, 430, 429, 425, 426
 8, 419, 418, 414, 415, 431, 430, 426, 427
 9, 420, 419, 415, 416, 432, 431, 427, 428
10,  77, 420, 416,  78,  74, 432, 428,  73
11, 421,  70,  71, 417, 433,  69,  68, 429
12, 422, 421, 417, 418, 434, 433, 429, 430
13, 423, 422, 418, 419, 435, 434, 430, 431
14, 424, 423, 419, 420, 436, 435, 431, 432
15,  76, 424, 420,  77,  75, 436, 432,  74
16,  59,   5,  70, 421,  66,   8,  69, 433
17,  60,  59, 421, 422,  65,  66, 433, 434
18,  61,  60, 422, 423,  64,  65, 434, 435
19,  62,  61, 423, 424,  63,  64, 435, 436
20,   6,  62, 424,  76,   7,  63, 436,  75
** ... 464 like lines cut
*Nset, nset=Set-1, generate
    1,  1080,     1
*Elset, elset=Set-1, generate
   1,  484,    1
** Section: Section-1
*Shell Section, elset=Set-1, material=Aluminium
3., 5
*End Instance
**  
*Nset, nset=_PickedSet47, internal, instance=Part-1-1
  47,  48,  49,  50, 393, 394, 395, 396, 397, 398, 399, 400, 401, 402, 403, 404
 405, 406, 407, 408, 409, 410, 411, 412
*Elset, elset=_PickedSet47, internal, instance=Part-1-1, generate
 474,  484,    1
*Nset, nset=_PickedSet48, internal, instance=Part-1-1
  29,  36,  48,  50, 215, 216, 217, 218, 219, 220, 221, 222, 223, 224, 393, 394
 395, 396, 397, 398, 399, 400, 401, 402
*Elset, elset=_PickedSet48, internal, instance=Part-1-1, generate
 474,  484,    1
*Nset, nset=_PickedSet49, internal, instance=Part-1-1
 5,
*End Assembly
** 
** MATERIALS
** 
*Material, name=Aluminium
*Density
 2.81e-09,
*Elastic
71000., 0.33
** ----------------------------------------------------------------
** 
** STEP: Step-1
** 
*Step, name=Step-1, nlgeom=NO
*Static
1., 1., 1e-05, 1.
** 
** BOUNDARY CONDITIONS
** 
** Name: BC-1 Type: //
*Boundary
_PickedSet47, ENCASTRE
** Name: BC-2 Type: //
*Boundary
_PickedSet48, YSYMM
** 
** LOADS
** 
** Name: Load-1   Type: Concentrated force
*Cload
_PickedSet49, 2, -19.6
** 
** OUTPUT REQUESTS
** 
*Restart, write, frequency=0
** 
** FIELD OUTPUT: F-Output-1
** 
*Output, field, variable=PRESELECT
** 
** HISTORY OUTPUT: H-Output-1
** 
*Output, history, variable=PRESELECT
*End Step
*Step, name=FEAuto
*matrix generate, stiffness, mass, load
*matrix output, stiffness, mass, load, FORMAT=COORDINATE
*Boundary
_PickedSet47, ENCASTRE
*Boundary
_PickedSet48, YSYMM
*Cload
_PickedSet49, 2, -19.6
*End step